Version 4
SHEET 1 928 680
WIRE 160 0 16 0
WIRE 384 0 272 0
WIRE 496 0 384 0
WIRE 384 16 384 0
WIRE 272 32 272 0
WIRE 496 32 496 0
WIRE 496 112 336 112
WIRE 16 160 16 0
WIRE 160 160 160 0
WIRE 336 160 336 112
WIRE 272 176 272 112
WIRE 304 176 272 176
WIRE 304 208 208 208
WIRE 336 256 336 224
WIRE 16 496 16 240
WIRE 160 496 160 240
WIRE 160 496 16 496
WIRE 160 528 160 496
FLAG 336 256 0
FLAG 384 16 0
FLAG 160 528 0
SYMBOL potentiometer 144 144 R0
SYMATTR InstName U1
SYMBOL OpAmps\\opamp2 336 128 R0
SYMATTR InstName U2
SYMBOL voltage 16 144 R0
SYMATTR InstName V1
SYMBOL voltage 272 128 R180
WINDOW 0 24 96 Left 2
WINDOW 3 24 16 Left 2
SYMATTR InstName V2
SYMBOL voltage 496 16 R0
SYMATTR InstName V3
