Version 4
SHEET 1 880 680
SYMBOL potentiometer 144 144 R0
SYMATTR InstName U1
SYMBOL OpAmps\\opamp2 496 144 R0
SYMATTR InstName U2
