Version 4
SHEET 1 928 680
WIRE 320 96 160 96
WIRE 400 96 320 96
WIRE 448 96 400 96
WIRE 400 112 400 96
WIRE 320 128 320 96
WIRE 448 128 448 96
WIRE 592 128 448 128
WIRE 160 160 160 96
WIRE 592 160 592 128
WIRE 224 208 208 208
WIRE 448 224 448 128
WIRE 320 240 320 208
WIRE 416 240 320 240
WIRE 496 256 480 256
WIRE 592 256 592 224
WIRE 592 256 576 256
WIRE 320 272 320 240
WIRE 416 272 384 272
WIRE 592 288 592 256
WIRE 224 304 224 208
WIRE 384 304 384 272
WIRE 384 304 224 304
WIRE 224 336 224 304
WIRE 448 384 448 288
WIRE 592 384 592 352
WIRE 592 384 448 384
WIRE 224 448 224 416
WIRE 368 448 368 320
WIRE 368 448 224 448
WIRE 400 448 400 192
WIRE 400 448 368 448
WIRE 448 448 448 384
WIRE 448 448 400 448
WIRE 448 480 448 448
FLAG 448 480 0
SYMBOL potentiometer 144 144 R0
SYMATTR InstName U1
SYMBOL OpAmps\\opamp2 448 192 R0
WINDOW 3 10 111 Left 2
SYMATTR InstName U2
SYMBOL voltage 400 96 R0
WINDOW 123 0 0 Left 0
WINDOW 39 0 0 Left 0
SYMATTR InstName V3
SYMATTR Value 5
SYMBOL res 304 112 R0
SYMATTR InstName R1
SYMATTR Value 10k
SYMBOL res 208 320 R0
SYMATTR InstName R3
SYMATTR Value 10k
SYMBOL LED 576 160 R0
SYMATTR InstName D1
SYMBOL LED 576 288 R0
SYMATTR InstName D2
SYMBOL res 592 240 R90
WINDOW 0 0 56 VBottom 2
WINDOW 3 32 56 VTop 2
SYMATTR InstName R4
SYMATTR Value 1k
SYMBOL potentiometer\ EU\ CW 304 256 R0
SYMATTR InstName U3
