Version 4
SHEET 1 880 680
WIRE 192 -464 0 -464
WIRE 192 -416 192 -464
WIRE 0 -384 0 -464
WIRE 192 -272 192 -336
WIRE 0 -160 0 -304
WIRE 96 -160 0 -160
WIRE 192 -160 192 -192
WIRE 192 -160 96 -160
WIRE 96 -144 96 -160
FLAG 96 -144 0
SYMBOL ind 176 -288 R0
SYMATTR InstName L1
SYMATTR Value 3mH
SYMBOL res 176 -432 R0
SYMATTR InstName R1
SYMATTR Value 43.8
SYMBOL voltage 0 -400 R0
WINDOW 123 0 0 Left 0
WINDOW 39 0 0 Left 0
SYMATTR InstName V1
SYMATTR Value PULSE(0 5 0 0 0 1.506m 3.012m)
TEXT -34 -154 Left 2 !.tran 0.01
